Release 4.2i - Par E.35
Copyright (c) 1995-2001 Xilinx, Inc.  All rights reserved.

Tue Sep 17 16:23:14 2002

Xilinx PAD Specification File
*****************************

Input file:       map.ncd
Output file:      orbit.ncd
Part type:        xcs10
Speed grade:      -4
Package:          pc84

Pinout by Signal Name:
-------------------------------|----------------------|--------|-----------|
          Signal Name          |       Pin Name       | Pin    | Direction |
                               |                      | Number |           |
-------------------------------|----------------------|--------|-----------|
 d<0>                          |                      | P44    | INPUT     |
 d<1>                          |                      | P45    | INPUT     |
 d<2>                          |                      | P46    | INPUT     |
 d<3>                          |                      | P47    | INPUT     |
 s<0>                          |                      | P25    | OUTPUT    |
 s<1>                          |                      | P26    | OUTPUT    |
 s<2>                          |                      | P24    | OUTPUT    |
 s<3>                          |                      | P20    | OUTPUT    |
 s<4>                          |                      | P23    | OUTPUT    |
 s<5>                          |                      | P18    | OUTPUT    |
 s<6>                          |                      | P19    | OUTPUT    |
-------------------------------|----------------------|--------|-----------|

Pinout by Pin Number:
--------|-------------------------------|----------------------|-----------|
 Pin    |          Signal Name          |       Pin Name       | Direction |
 Number |                               |                      |           |
--------|-------------------------------|----------------------|-----------|
 P1     |                               | GND                  |           |
 P2     |                               | VCC                  |           |
 P3     |                               |                      | UNUSED    |
 P4     |                               |                      | UNUSED    |
 P5     |                               |                      | UNUSED    |
 P6     |                               |                      | UNUSED    |
 P7     |                               |                      | UNUSED    |
 P8     |                               |                      | UNUSED    |
 P9     |                               |                      | UNUSED    |
 P10    |                               |                      | UNUSED    |
 P11    |                               | VCC                  |           |
 P12    |                               | GND                  |           |
 P13    |                               |                      | UNUSED    |
 P14    |                               |                      | UNUSED    |
 P15    |                               | TDI                  |           |
 P16    |                               | TCK                  |           |
 P17    |                               | TMS                  |           |
 P18    | s<5>                          |                      | OUTPUT    |
 P19    | s<6>                          |                      | OUTPUT    |
 P20    | s<3>                          |                      | OUTPUT    |
 P21    |                               | GND                  |           |
 P22    |                               | VCC                  |           |
 P23    | s<4>                          |                      | OUTPUT    |
 P24    | s<2>                          |                      | OUTPUT    |
 P25    | s<0>                          |                      | OUTPUT    |
 P26    | s<1>                          |                      | OUTPUT    |
 P27    |                               |                      | UNUSED    |
 P28    |                               |                      | UNUSED    |
 P29    |                               |                      | UNUSED    |
 P30    |                               | N.C.                 |           |
 P31    |                               | GND                  |           |
 P33    |                               | VCC                  |           |
 P34    |                               | N.C.                 |           |
 P35    |                               |                      | UNUSED    |
 P36    |                               |                      | UNUSED    |
 P37    |                               |                      | UNUSED    |
 P38    |                               |                      | UNUSED    |
 P39    |                               |                      | UNUSED    |
 P40    |                               |                      | UNUSED    |
 P41    |                               |                      | UNUSED    |
 P42    |                               | VCC                  |           |
 P43    |                               | GND                  |           |
 P44    | d<0>                          |                      | INPUT     |
 P45    | d<1>                          |                      | INPUT     |
 P46    | d<2>                          |                      | INPUT     |
 P47    | d<3>                          |                      | INPUT     |
 P48    |                               |                      | UNUSED    |
 P49    |                               |                      | UNUSED    |
 P50    |                               |                      | UNUSED    |
 P51    |                               |                      | UNUSED    |
 P52    |                               | GND                  |           |
 P53    |                               | DONE                 |           |
 P54    |                               | VCC                  |           |
 P55    |                               | /PROG                |           |
 P56    |                               |                      | UNUSED    |
 P57    |                               |                      | UNUSED    |
 P58    |                               |                      | UNUSED    |
 P59    |                               |                      | UNUSED    |
 P60    |                               |                      | UNUSED    |
 P61    |                               |                      | UNUSED    |
 P62    |                               |                      | UNUSED    |
 P63    |                               | VCC                  |           |
 P64    |                               | GND                  |           |
 P65    |                               |                      | UNUSED    |
 P66    |                               |                      | UNUSED    |
 P67    |                               |                      | UNUSED    |
 P68    |                               |                      | UNUSED    |
 P69    |                               |                      | UNUSED    |
 P70    |                               |                      | UNUSED    |
 P71    |                               |                      | UNUSED    |
 P72    |                               |                      | UNUSED    |
 P73    |                               | CCLK                 |           |
 P74    |                               | VCC                  |           |
 P75    |                               | TDO                  |           |
 P76    |                               | GND                  |           |
 P77    |                               |                      | UNUSED    |
 P78    |                               |                      | UNUSED    |
 P79    |                               |                      | UNUSED    |
 P80    |                               |                      | UNUSED    |
 P81    |                               |                      | UNUSED    |
 P82    |                               |                      | UNUSED    |
 P83    |                               |                      | UNUSED    |
 P84    |                               |                      | UNUSED    |
--------|-------------------------------|----------------------|-----------|

* Default value.
** This default Pullup/Pulldown value can be overridden in Bitgen.
*** The default IOB Delay is determined by how the IOB is used.


#
# To preserve the pinout above for future design iterations,
# simply invoke PIN2UCF from the command line or issue this command in the GUI.
# For Foundation ISE/Project Navigator - Run the process "Implement Design" -> "Place-and-Route" -> "Back-annotate Pin Locations"
# For Design Manager - In the Design menu select "Lock Pins...
# The location constraints above will be written into your specified UCF file. (The constraints
# listed below are in PCF format and cannot be directly used in the UCF file).
#
COMP "d<0>" LOCATE = SITE "P44" ; 
COMP "d<1>" LOCATE = SITE "P45" ; 
COMP "d<2>" LOCATE = SITE "P46" ; 
COMP "d<3>" LOCATE = SITE "P47" ; 
COMP "s<0>" LOCATE = SITE "P25" ; 
COMP "s<1>" LOCATE = SITE "P26" ; 
COMP "s<2>" LOCATE = SITE "P24" ; 
COMP "s<3>" LOCATE = SITE "P20" ; 
COMP "s<4>" LOCATE = SITE "P23" ; 
COMP "s<5>" LOCATE = SITE "P18" ; 
COMP "s<6>" LOCATE = SITE "P19" ; 
#
